hits_docked
 OpenBabel04272412483D

 38 43  0  0  0  0  0  0  0  0999 V2000
   11.3130   -9.7680   -4.0140 C   0  0  0  0  0  2  0  0  0  0  0  0
   12.5510   -9.7730   -3.1060 C   0  0  0  0  0  2  0  0  0  0  0  0
   12.1950  -10.2110   -1.7600 N   0  0  0  0  0  0  0  0  0  0  0  0
   13.3470  -10.3530   -0.8490 C   0  0  0  0  0  1  0  0  0  0  0  0
   11.4290  -11.4350   -1.6800 C   0  0  0  0  0  2  0  0  0  0  0  0
   10.3540  -11.5840   -2.7400 C   0  0  0  0  0  2  0  0  0  0  0  0
   10.7410  -11.1020   -4.0520 N   0  0  0  0  0  0  0  0  0  0  0  0
    9.7750  -11.3490   -5.1610 C   0  0  0  0  0  2  0  0  0  0  0  0
    8.5060  -10.3850   -5.2730 C   0  0  0  0  0  2  0  0  0  0  0  0
    7.5480  -11.1700   -6.0590 O   0  0  0  0  0  0  0  0  0  0  0  0
    6.4270  -10.6760   -6.6420 C   0  0  0  0  0  0  0  0  0  0  0  0
    6.1540   -9.3580   -6.7450 C   0  0  0  0  0  3  0  0  0  0  0  0
    4.9350   -9.0160   -7.2140 C   0  0  0  0  0  0  0  0  0  0  0  0
    4.7390   -7.7290   -7.3410 N   0  0  0  0  0  0  0  0  0  0  0  0
    3.5880   -7.3590   -7.8110 C   0  0  0  0  0  3  0  0  0  0  0  0
    2.6570   -8.1550   -8.3320 N   0  0  0  0  0  0  0  0  0  0  0  0
    2.9360   -9.4430   -8.2290 C   0  0  0  0  0  0  0  0  0  0  0  0
    4.0850   -9.9760   -7.6530 C   0  0  0  0  0  0  0  0  0  0  0  0
    4.3760  -11.3050   -7.5630 C   0  0  0  0  0  0  0  0  0  0  0  0
    5.5120  -11.6320   -6.9380 C   0  0  0  0  0  3  0  0  0  0  0  0
    3.4640  -12.2400   -7.9380 O   0  0  0  0  0  0  0  0  0  0  0  0
    3.5680  -13.6360   -7.6520 C   0  0  0  0  0  3  0  0  0  0  0  0
    3.2600  -13.7920   -6.1560 C   0  0  0  0  0  2  0  0  0  0  0  0
    3.0840  -15.2960   -5.7230 C   0  0  0  0  0  2  0  0  0  0  0  0
    2.0920  -15.8740   -6.6120 O   0  0  0  0  0  0  0  0  0  0  0  0
    2.3420  -15.7850   -8.0160 C   0  0  0  0  0  2  0  0  0  0  0  0
    2.4720  -14.2610   -8.4410 C   0  0  0  0  0  2  0  0  0  0  0  0
    2.0800  -10.1870   -8.8760 N   0  0  0  0  0  2  0  0  0  0  0  0
    0.9420   -9.9310   -9.5060 C   0  0  0  0  0  0  0  0  0  0  0  0
    0.8330   -9.3230  -10.7570 C   0  0  0  0  0  0  0  0  0  0  0  0
    1.8620   -8.8110  -11.5660 O   0  0  0  0  0  0  0  0  0  0  0  0
    1.3220   -8.5970  -12.8620 C   0  0  0  0  0  2  0  0  0  0  0  0
   -0.1280   -8.7680  -12.7210 O   0  0  0  0  0  0  0  0  0  0  0  0
   -0.3350   -9.1740  -11.4260 C   0  0  0  0  0  0  0  0  0  0  0  0
   -1.5210   -9.4040  -10.8010 C   0  0  0  0  0  3  0  0  0  0  0  0
   -1.4710   -9.8620   -9.5140 C   0  0  0  0  0  3  0  0  0  0  0  0
   -0.2780  -10.1100   -8.8110 C   0  0  0  0  0  0  0  0  0  0  0  0
   -0.4150  -10.7900   -7.2030 C   0  0  0  0  0  1  0  0  0  0  0  0
  1  2  1  0  0  0  0
  2  3  1  0  0  0  0
  3  5  1  0  0  0  0
  3  4  1  0  0  0  0
  6  5  1  0  0  0  0
  7  1  1  0  0  0  0
  7  6  1  0  0  0  0
  8  7  1  0  0  0  0
  9  8  1  0  0  0  0
 10  9  1  0  0  0  0
 11 10  1  0  0  0  0
 12 11  1  0  0  0  0
 13 12  2  0  0  0  0
 14 13  1  0  0  0  0
 15 14  2  0  0  0  0
 16 17  2  0  0  0  0
 16 15  1  0  0  0  0
 17 18  1  0  0  0  0
 18 19  2  0  0  0  0
 18 13  1  0  0  0  0
 19 20  1  0  0  0  0
 20 11  2  0  0  0  0
 21 22  1  0  0  0  0
 21 19  1  0  0  0  0
 22 23  1  0  0  0  0
 23 24  1  0  0  0  0
 25 24  1  0  0  0  0
 26 25  1  0  0  0  0
 27 26  1  0  0  0  0
 27 22  1  0  0  0  0
 28 17  1  0  0  0  0
 29 28  1  0  0  0  0
 29 37  1  0  0  0  0
 30 29  2  0  0  0  0
 31 30  1  0  0  0  0
 32 33  1  0  0  0  0
 32 31  1  0  0  0  0
 33 34  1  0  0  0  0
 34 35  2  0  0  0  0
 34 30  1  0  0  0  0
 35 36  1  0  0  0  0
 36 37  2  0  0  0  0
 37 38  1  0  0  0  0
M  END
$$$$
